LAMMPS (27 May 2021)
# Initialize interatomic potential (KIM model) and units
atom_style	atomic
kim init	DUNN_best_train metal
#=== BEGIN kim init ==========================================
units metal
neighbor 2.0 bin   # Angstroms
timestep 1.0e-3    # picoseconds

This model has 2 mutable parameters.
 No.      | Parameter name     | data type  | extent
 1        | ensemble_size      | "Integer"  | 1
 2        | active_member_id   | "Integer"  | 1
#=== END kim init ============================================

# boundary conditions
boundary	p p p
# create a honeycomb lattice
variable	a equal 2.466
variable	sqrt3 equal sqrt(3.0)
variable	b equal 2.466/1.73205080756888
variable	sc equal 3.0*$b  # Lattice scale
variable	sc equal 3.0*1.42374576382161
variable	hsc equal 20/4.27123729146483
variable	asc equal 2.466/4.27123729146483
lattice		custom 4.27123729146483 			a1 1.0 0.0 0.0 			a2 0.0 0.577350269189629 0.0 			a3 0.0 0.0 4.68248393503348 			basis 0.0 0.0 0.0 			basis $(1.0/3.0) 0.0 0.0 			basis 0.5 0.5 0.0 			basis $(5.0/6.0) 0.5 0.0
lattice		custom 4.27123729146483 			a1 1.0 0.0 0.0 			a2 0.0 0.577350269189629 0.0 			a3 0.0 0.0 4.68248393503348 			basis 0.0 0.0 0.0 			basis 0.33333333333333331483 0.0 0.0 			basis 0.5 0.5 0.0 			basis $(5.0/6.0) 0.5 0.0
lattice		custom 4.27123729146483 			a1 1.0 0.0 0.0 			a2 0.0 0.577350269189629 0.0 			a3 0.0 0.0 4.68248393503348 			basis 0.0 0.0 0.0 			basis 0.33333333333333331483 0.0 0.0 			basis 0.5 0.5 0.0 			basis 0.83333333333333337034 0.5 0.0
Lattice spacing in x,y,z = 4.2712373 2.4660000 20.000000
# create simulation box and atoms
region		box block 0 4 0 6 0 1 units lattice
create_box	1 box
Created orthogonal box = (0.0000000 0.0000000 0.0000000) to (17.084949 14.796000 20.000000)
create_atoms	1 box
Created 96 atoms
mass		1 12
# specify atom type to chemical species mapping for the KIM model
kim		interactions C
#=== BEGIN kim interactions ==================================
pair_style kim DUNN_best_train
pair_coeff * * C
#=== END kim interactions ====================================

kim		param set active_member_id 1 0
#=== BEGIN kim param set =====================================
pair_coeff * *  C active_member_id 1 0
#=== END kim param set =======================================

# # compute energy
# run		0
# variable	natoms equal "count(all)"

# Equilibrate for 10_000 time steps
variable	temp equal 300.0
fix		mynve all nve
fix		mylgv all langevin 300 300 0.1 1530917

thermo		100
thermo_style	custom step temp etotal press lx ly lz
run		10000

CITE-CITE-CITE-CITE-CITE-CITE-CITE-CITE-CITE-CITE-CITE-CITE-CITE

Your simulation uses code contributions which should be cited:

- OpenKIM: https://doi.org/10.1007/s11837-011-0102-6

@Article{tadmor:elliott:2011,
 author = {E. B. Tadmor and R. S. Elliott and J. P. Sethna and R. E. Miller and C. A. Becker},
 title = {The potential of atomistic simulations and the {K}nowledgebase of {I}nteratomic {M}odels},
 journal = {{JOM}},
 year =    2011,
 volume =  63,
 number =  17,
 pages =   {17},
 doi =     {10.1007/s11837-011-0102-6}
}

- KIM potential: unpublished, "DUNN_best_train"
CITE-CITE-CITE-CITE-CITE-CITE-CITE-CITE-CITE-CITE-CITE-CITE-CITE

  update every 1 steps, delay 10 steps, check yes
Step Temp TotEng Press Lx Ly Lz
0            0   -774.27748   -1469.5356    17.084949       14.796           20
Averages over the last 51 of 101 rows, steps 5000 to 10000:
Temp TotEng Press Lx Ly Lz
301.711 -766.759 -1503.28 17.0849 14.796 20
Loop time of 1977.43 on 8 procs for 10000 steps with 96 atoms

# Start recording the data
dump		mydump all custom 10 "dump/virial_*.dump" id type x y z fx fy fz
dump_modify	mydump format float %.16f
# Using this dump format, I can use ase.io.read to read the file and get all the
# information I need, including the atomic positions and forces.

# MD
reset_timestep	0
run		10000
  update every 1 steps, delay 10 steps, check yes
Step Temp TotEng Press Lx Ly Lz
0    326.16759   -766.97889   -1564.6787    17.084949       14.796           20
Averages over the last 51 of 101 rows, steps 5000 to 10000:
Temp TotEng Press Lx Ly Lz
301.659 -766.894 -1473.89 17.0849 14.796 20
Loop time of 1918.79 on 8 procs for 10000 steps with 96 atoms

undump		mydump
